
  Mrv0541 04051115152D          

  5  4  0  0  0  0            999 V2000
    1.1602   -0.8574    0.0000 C   0  0  0  0  0  0  0  0  0  0  0  0
    0.7477   -0.1429    0.0000 C   0  0  0  0  0  0  0  0  0  0  0  0
   -0.0773   -0.1429    0.0000 C   0  0  0  0  0  0  0  0  0  0  0  0
   -0.4897    0.5716    0.0000 C   0  0  0  0  0  0  0  0  0  0  0  0
   -1.3147    0.5716    0.0000 C   0  0  0  0  0  0  0  0  0  0  0  0
  1  2  1  0  0  0  0
  2  3  1  0  0  0  0
  3  4  1  0  0  0  0
  4  5  1  0  0  0  0
M  END
> <chembl_id>
CHEMBL16102

