
  SciTegic11211800332D

 12 13  0  0  0  0            999 V2000
    8.8473  -10.5730    0.0000 N   0  3
    8.1380  -10.9825    0.0000 C   0  0
    8.1380  -11.8015    0.0000 C   0  0
    8.8473  -12.2110    0.0000 C   0  0
    9.5566  -11.8015    0.0000 C   0  0
   10.2659  -12.2110    0.0000 C   0  0
   10.9752  -11.8015    0.0000 C   0  0
   10.9752  -10.9825    0.0000 C   0  0
   10.2659  -10.5730    0.0000 C   0  0
    9.5566  -10.9825    0.0000 C   0  0
    8.8473   -9.7539    0.0000 C   0  0
   11.6829  -10.5739    0.0000 N   0  0
  1  2  2  0
  2  3  1  0
  3  4  2  0
  4  5  1  0
  5  6  2  0
  6  7  1  0
  7  8  2  0
  8  9  1  0
  9 10  2  0
  1 10  1  0
  5 10  1  0
  1 11  1  0
  8 12  1  0
M  CHG  1   1   1
M  END
> <chembl_id>
CHEMBL4115945

